Circuit: * C:\Users\x\tesis\Placa adquisidora\Simulaciones\Filtro AntiAliasing\filtro ruido o4.asc

V4: Missing value, assumed 0V @ DC

Date: Wed Apr 09 00:30:04 2014
Total elapsed time: 0.050 seconds.

tnom = 27
temp = 27
method = trap
totiter = 0
traniter = 0
tranpoints = 0
accept = 0
rejected = 0
matrix size = 5
fillins = 1
solver = Normal

