Circuit: * C:\Users\x\tesis\Placa adquisidora\Simulaciones\Filtro AntiAliasing\filtro ruido o3.asc

Fatal Error: Unknown subcircuit called in:
   xu1 n001 0 o3 opamp
