Circuit: * C:\Users\x\tesis\Placa adquisidora\Simulaciones\Filtro AntiAliasing\filtro no nominal.asc

Early termination of direct N-R iteration.
Direct Newton iteration failed to find .op point.  (Use ".option noopiter" to skip.)
Starting Gmin stepping
Gmin = 10
vernier = 0.5
vernier = 0.25
vernier = 0.125
Gmin = 5.5165
vernier = 0.0625
vernier = 0.03125
vernier = 0.015625
vernier = 0.0078125
Gmin = 5.48432
vernier = 0.00390625
vernier = 0.00195313
vernier = 0.000976563
vernier = 0.000488281
Gmin = 0
Gmin stepping failed

Starting source stepping with srcstepmethod=0
Source Step = 3.0303%
Source Step = 33.3333%
Source Step = 63.6364%
Source Step = 93.9394%
Source stepping succeeded in finding the operating point.


Date: Wed Apr 16 15:50:13 2014
Total elapsed time: 0.820 seconds.

tnom = 27
temp = 27
method = modified trap
totiter = 3797
traniter = 2146
tranpoints = 1074
accept = 1067
rejected = 7
matrix size = 103
fillins = 853
solver = Normal
Thread vector: 16.1/11.1[2] 5.3/3.8[2] 5.5/4.5[2] 1.1/2.3[1]  2592/500
Matrix Compiler1: 109 KB object code size  24.4/10.3/[10.5]
Matrix Compiler2: 23,9 KB object code size  6.0/4.3/[2.1]


