Circuit: * C:\Users\x\tesis\Placa adquisidora\Simulaciones\Filtro AntiAliasing\filtro ruido o2.asc

V2: Missing value, assumed 0V @ DC

Date: Wed Apr 09 00:26:02 2014
Total elapsed time: 0.340 seconds.

tnom = 27
temp = 27
method = trap
totiter = 0
traniter = 0
tranpoints = 0
accept = 0
rejected = 0
matrix size = 5
fillins = 4
solver = Normal

