Circuit: * C:\Users\x\tesis\Placa adquisidora\Simulaciones\Filtro AntiAliasing\filtro ruido i3.asc

V3: Missing value, assumed 0V @ DC
Early termination of direct N-R iteration.
Direct Newton iteration failed to find .op point.  (Use ".option noopiter" to skip.)
Starting Gmin stepping
Gmin = 10
vernier = 0.5
vernier = 0.25
vernier = 0.125
Gmin = 5.5165
vernier = 0.0625
vernier = 0.03125
vernier = 0.015625
vernier = 0.0078125
Gmin = 5.49501
vernier = 0.00390625
vernier = 0.00195313
vernier = 0.000976563
vernier = 0.000488281
Gmin = 5.50104
Gmin = 0
Gmin stepping succeeded in finding the operating point.


Date: Wed Apr 09 00:26:27 2014
Total elapsed time: 0.100 seconds.

tnom = 27
temp = 27
method = trap
totiter = 1374
traniter = 0
tranpoints = 0
accept = 0
rejected = 0
matrix size = 28
fillins = 96
solver = Normal
Matrix Compiler1:     344 opcodes
Matrix Compiler2:     282 opcodes  0.8/[0.8]/1.9


